FoamFile
{
    version     2.0;
    format      ascii;
    class       polyBoundaryMesh;
    location    "constant/polyMesh";
    object      boundary;
}

6         
(
    bottom
    {
        type patch;
        nFaces 547;
        startFace 313132;
    }
    cylinder
    {
        type wall;
        nFaces 196;
        startFace 313679;
    }
    frontandback
    {
        type empty;
        nFaces 314024;
        startFace 313875;
    }
    inlet
    {
        type patch;
        nFaces 247;
        startFace 627899;
    }
    outlet
    {
        type patch;
        nFaces 247;
        startFace 628146;
    }
    top
    {
        type patch;
        nFaces 547;
        startFace 628393;
    }
)
